Version 4
SHEET 1 880 680
WIRE 208 -288 80 -288
WIRE 352 -288 288 -288
WIRE 352 -224 352 -288
WIRE 80 -192 80 -288
WIRE 80 -48 80 -112
WIRE 144 -48 80 -48
WIRE 352 -48 352 -160
WIRE 352 -48 144 -48
WIRE 144 -16 144 -48
FLAG 144 -16 0
SYMBOL voltage 80 -208 R0
WINDOW 123 0 0 Left 0
WINDOW 39 0 0 Left 0
SYMATTR InstName V1
SYMATTR Value 12
SYMBOL res 304 -304 R90
WINDOW 0 0 56 VBottom 2
WINDOW 3 32 56 VTop 2
SYMATTR InstName R1
SYMATTR Value 100k
SYMBOL diode 336 -224 R0
SYMATTR InstName D1
SYMATTR Value 1N4148
TEXT 46 8 Left 2 !.tran 1
